<?xml version="1.0" encoding="UTF-8"?>
<types>
  <type id="a" priority="1" numLanes="2" speed="33.5"/>
  <type id="b" priority="1" numLanes="3" speed="33.5"/>
  <type id="c" priority="1" numLanes="4" speed="33.5"/>
  <type id="d" priority="1" numLanes="5" speed="33.5"/>
  <type id="e" priority="1" numLanes="6" speed="33.5"/>
  
  </types>