<?xml version="1.0" encoding="UTF-8"?>
<connections>

	<connection from="E1" to="E2" lane="0:0" pass="true"/>
	<connection from="E1" to="E2" lane="1:1" pass="true"/>
	<connection from="E1" to="E2" lane="2:2" pass="true"/>
	<connection from="E1" to="E2" lane="3:3" pass="true"/>

	
	<connection from="S2" to="E2" lane="0:0" pass="true"/>
	<connection from="S2" to="E2" lane="0:1" pass="true"/>
	<connection from="S2" to="E2" lane="0:2" pass="true"/>
	<connection from="S2" to="E2" lane="0:3" pass="true"/>
	<connection from="S2" to="E2" lane="1:0" pass="true"/>
	<connection from="S2" to="E2" lane="1:1" pass="true"/>
	<connection from="S2" to="E2" lane="1:2" pass="true"/>
	<connection from="S2" to="E2" lane="1:3" pass="true"/>
	
	<connection from="E2" to="E3" lane="0:0" pass="true"/>
	<connection from="E2" to="E3" lane="0:1" pass="true"/>
	<connection from="E2" to="E3" lane="1:2" pass="true"/>
	<connection from="E2" to="E3" lane="2:3" pass="true"/>
	<connection from="E2" to="E3" lane="3:4" pass="true"/>
	
	
	
	<connection from="E3" to="E4" lane="0:0" pass="true"/>
	<connection from="E3" to="E4" lane="0:1" pass="true"/>
	<connection from="E3" to="E4" lane="1:2" pass="true"/>
	<connection from="E3" to="E4" lane="2:3" pass="true"/>
	<connection from="E3" to="E4" lane="3:4" pass="true"/>
	<connection from="E3" to="E4" lane="4:5" pass="true"/>

	
	<connection from="E4" to="E5" lane="0:0" pass="true"/>
	<connection from="E4" to="E5" lane="1:0" pass="true"/>
	<connection from="E4" to="E5" lane="2:1" pass="true"/>
	<connection from="E4" to="E5" lane="3:2" pass="true"/>
	<connection from="E4" to="E5" lane="4:3" pass="true"/>
	<connection from="E4" to="E5" lane="5:4" pass="true"/>
	
	
	<connection from="E5" to="E6" lane="0:0" pass="true"/>
	<connection from="E5" to="E6" lane="1:1" pass="true"/>
	<connection from="E5" to="E6" lane="2:2" pass="true"/>
	<connection from="E5" to="E6" lane="3:3" pass="true"/>
	<connection from="E5" to="E6" lane="4:4" pass="true"/>
	
	<connection from="E5" to="S6" lane="0:0" pass="true"/>
	<connection from="E5" to="S6" lane="1:1" pass="true"/>
	<connection from="E5" to="S6" lane="2:1" pass="true"/>

	
	<connection from="E6" to="E7" lane="0:0" pass="true"/>
	<connection from="E6" to="E7" lane="1:0" pass="true"/>
	<connection from="E6" to="E7" lane="2:1" pass="true"/>
	<connection from="E6" to="E7" lane="3:2" pass="true"/>
	<connection from="E6" to="E7" lane="4:3" pass="true"/>
	
	
	<connection from="E7" to="S8" lane="0:0" pass="true"/>
	<connection from="E7" to="S8" lane="1:1" pass="true"/>
	<connection from="E7" to="S8" lane="2:1" pass="true"/>
	

	<connection from="E7" to="E8" lane="0:0" pass="true"/>
	<connection from="E7" to="E8" lane="1:1" pass="true"/>
	<connection from="E7" to="E8" lane="2:2" pass="true"/>
	<connection from="E7" to="E8" lane="3:3" pass="true"/>
	
	
	<connection from="E8" to="E9" lane="0:0" pass="true"/>
	<connection from="E8" to="E9" lane="0:1" pass="true"/>
	<connection from="E8" to="E9" lane="0:2" pass="true"/>
	<connection from="E8" to="E9" lane="1:1" pass="true"/>
	<connection from="E8" to="E9" lane="1:2" pass="true"/>
	<connection from="E8" to="E9" lane="1:3" pass="true"/>
	<connection from="E8" to="E9" lane="2:2" pass="true"/>
	<connection from="E8" to="E9" lane="2:3" pass="true"/>
	<connection from="E8" to="E9" lane="2:4" pass="true"/>
	<connection from="E8" to="E9" lane="3:3" pass="true"/>
	<connection from="E8" to="E9" lane="3:4" pass="true"/>

	
	<connection from="E9" to="E10" lane="0:0" pass="true"/>
	<connection from="E9" to="E10" lane="0:1" pass="true"/>
	<connection from="E9" to="E10" lane="1:2" pass="true"/>
	<connection from="E9" to="E10" lane="2:3" pass="true"/>
	<connection from="E9" to="E10" lane="3:4" pass="true"/>

	
	<connection from="S10" to="E10" lane="0:0" pass="true"/>
	<connection from="S10" to="E10" lane="0:1" pass="true"/>
	<connection from="S10" to="E10" lane="0:2" pass="true"/>
	<connection from="S10" to="E10" lane="0:3" pass="true"/>
	<connection from="S10" to="E10" lane="0:4" pass="true"/>
	<connection from="S10" to="E10" lane="1:0" pass="true"/>
	<connection from="S10" to="E10" lane="1:1" pass="true"/>
	<connection from="S10" to="E10" lane="1:2" pass="true"/>
	<connection from="S10" to="E10" lane="1:3" pass="true"/>
	<connection from="S10" to="E10" lane="1:4" pass="true"/>
  
	
	<connection from="E10" to="E11" lane="0:0" pass="true"/>
	<connection from="E10" to="E11" lane="1:1" pass="true"/>
	<connection from="E10" to="E11" lane="2:2" pass="true"/>
	<connection from="E10" to="E11" lane="3:3" pass="true"/>
	<connection from="E10" to="E11" lane="4:4" pass="true"/>

	
	<connection from="E10" to="S11" lane="0:0" pass="true"/>
	<connection from="E10" to="S11" lane="1:1" pass="true"/>
	<connection from="E10" to="S11" lane="2:1" pass="true"/>

	
	<connection from="E11" to="E12" lane="0:0" pass="true"/>
	<connection from="E11" to="E12" lane="1:1" pass="true"/>
	<connection from="E11" to="E12" lane="2:2" pass="true"/>
	<connection from="E11" to="E12" lane="3:3" pass="true"/>
	<connection from="E11" to="E12" lane="4:4" pass="true"/>

	<connection from="S12" to="E12" lane="0:0" pass="true"/>
	<connection from="S12" to="E12" lane="0:1" pass="true"/>
	<connection from="S12" to="E12" lane="0:2" pass="true"/>
	<connection from="S12" to="E12" lane="0:3" pass="true"/>
	<connection from="S12" to="E12" lane="0:4" pass="true"/>
	<connection from="S12" to="E12" lane="1:0" pass="true"/>
	<connection from="S12" to="E12" lane="1:1" pass="true"/>
	<connection from="S12" to="E12" lane="1:2" pass="true"/>
	<connection from="S12" to="E12" lane="1:3" pass="true"/>
	<connection from="S12" to="E12" lane="1:4" pass="true"/>
	
	
	<connection from="E12" to="E13" lane="0:0" pass="true"/>
	<connection from="E12" to="E13" lane="0:1" pass="true"/>
	<connection from="E12" to="E13" lane="1:2" pass="true"/>
	<connection from="E12" to="E13" lane="2:3" pass="true"/>
	<connection from="E12" to="E13" lane="3:4" pass="true"/>
	<connection from="E12" to="E13" lane="4:5" pass="true"/>

	
	<connection from="E13" to="E14" lane="0:0" pass="true"/>
	<connection from="E13" to="E14" lane="1:0" pass="true"/>
	<connection from="E13" to="E14" lane="2:1" pass="true"/>
	<connection from="E13" to="E14" lane="3:2" pass="true"/>	
	<connection from="E13" to="E14" lane="4:3" pass="true"/>
	<connection from="E13" to="E14" lane="5:4" pass="true"/>	
	

	<connection from="E14" to="E15" lane="0:0" pass="true"/>
	<connection from="E14" to="E15" lane="1:1" pass="true"/>
	<connection from="E14" to="E15" lane="2:2" pass="true"/>
	<connection from="E14" to="E15" lane="3:3" pass="true"/>	
	<connection from="E14" to="E15" lane="4:4" pass="true"/>

	
	<connection from="E15" to="E16" lane="0:0" pass="true"/>
	<connection from="E15" to="E16" lane="0:1" pass="true"/>
	<connection from="E15" to="E16" lane="1:1" pass="true"/>
	<connection from="E15" to="E16" lane="1:2" pass="true"/>
	<connection from="E15" to="E16" lane="1:3" pass="true"/>
	<connection from="E15" to="E16" lane="2:1" pass="true"/>
	<connection from="E15" to="E16" lane="2:2" pass="true"/>
	<connection from="E15" to="E16" lane="2:3" pass="true"/>
	<connection from="E15" to="E16" lane="3:2" pass="true"/>
	<connection from="E15" to="E16" lane="3:3" pass="true"/>
	<connection from="E15" to="E16" lane="3:4" pass="true"/>	
	<connection from="E15" to="E16" lane="4:3" pass="true"/>
	<connection from="E15" to="E16" lane="4:4" pass="true"/>	
	
	<connection from="S15" to="E15" lane="0:0" pass="true"/>
	<connection from="S15" to="E15" lane="0:1" pass="true"/>
	<connection from="S15" to="E15" lane="0:2" pass="true"/>
	<connection from="S15" to="E15" lane="0:3" pass="true"/>
	<connection from="S15" to="E15" lane="0:4" pass="true"/>
	<connection from="S15" to="E15" lane="1:0" pass="true"/>
	<connection from="S15" to="E15" lane="1:1" pass="true"/>
	<connection from="S15" to="E15" lane="1:2" pass="true"/>	
	<connection from="S15" to="E15" lane="1:3" pass="true"/>
	<connection from="S15" to="E15" lane="1:4" pass="true"/>
	
	<connection from="E16" to="S17" lane="0:0" pass="true"/>
	<connection from="E16" to="S17" lane="1:1" pass="true"/>
	<connection from="E16" to="S17" lane="2:1" pass="true"/>
  
	
	<connection from="E16" to="E17" lane="0:0" pass="true"/>
	<connection from="E16" to="E17" lane="1:1" pass="true"/>
	<connection from="E16" to="E17" lane="2:2" pass="true"/>
	<connection from="E16" to="E17" lane="3:3" pass="true"/>
	
    
	<connection from="E17" to="E18" lane="0:0" pass="true"/>
	<connection from="E17" to="E18" lane="0:1" pass="true"/>
	<connection from="E17" to="E18" lane="1:2" pass="true"/>
	<connection from="E17" to="E18" lane="1:3" pass="true"/>
	<connection from="E17" to="E18" lane="2:3" pass="true"/>
	<connection from="E17" to="E18" lane="2:4" pass="true"/>
	<connection from="E17" to="E18" lane="3:4" pass="true"/>
	<connection from="E17" to="E18" lane="3:5" pass="true"/>
	<connection from="E17" to="E18" lane="4:5" pass="true"/>
  
	
	<connection from="E18" to="E19" lane="0:0" pass="true"/>
	<connection from="E18" to="E19" lane="1:0" pass="true"/>
	<connection from="E18" to="E19" lane="2:1" pass="true"/>
	<connection from="E18" to="E19" lane="3:2" pass="true"/>
	<connection from="E18" to="E19" lane="4:3" pass="true"/>
	<connection from="E18" to="E19" lane="5:4" pass="true"/>
	

	<connection from="E19" to="E20" lane="0:0" pass="true"/>
	<connection from="E19" to="E20" lane="1:1" pass="true"/>
	<connection from="E19" to="E20" lane="2:2" pass="true"/>
	<connection from="E19" to="E20" lane="3:3" pass="true"/>
	<connection from="E19" to="E20" lane="4:4" pass="true"/>
	

	<connection from="E19" to="S20" lane="0:0" pass="true"/>
	<connection from="E19" to="S20" lane="1:1" pass="true"/>
	<connection from="E19" to="S20" lane="2:1" pass="true"/>
		
	
	<connection from="E20" to="E21" lane="0:0" pass="true"/>
	<connection from="E20" to="E21" lane="1:1" pass="true"/>
	<connection from="E20" to="E21" lane="2:2" pass="true"/>
	<connection from="E20" to="E21" lane="3:3" pass="true"/>
	<connection from="E20" to="E21" lane="4:4" pass="true"/>
	
  
</connections>