<?xml version="1.0" encoding="UTF-8"?>

<!-- generated on 2024-09-27 07:47:33 by Eclipse SUMO netconvert Version 1.20.0
<configuration xmlns:xsi="http://www.w3.org/2001/XMLSchema-instance" xsi:noNamespaceSchemaLocation="http://sumo.dlr.de/xsd/netconvertConfiguration.xsd">

    <input>
        <node-files value="prob.nod.xml"/>
        <edge-files value="prob.edg.xml"/>
        <connection-files value="prob.con.xml"/>
        <type-files value="prob.typ.xml"/>
    </input>

    <output>
        <output-file value="prob.net.xml"/>
    </output>

    <junctions>
        <no-turnarounds value="true"/>
    </junctions>

</configuration>
-->

<net version="1.20" junctionCornerDetail="5" limitTurnSpeed="5.50" xmlns:xsi="http://www.w3.org/2001/XMLSchema-instance" xsi:noNamespaceSchemaLocation="http://sumo.dlr.de/xsd/net_file.xsd">

    <location netOffset="-1000.00,80.00" convBoundary="0.00,0.00,12150.00,80.00" origBoundary="1000.00,-80.00,13150.00,0.00" projParameter="!"/>

    <type id="a" priority="1" numLanes="2" speed="33.50"/>
    <type id="c" priority="1" numLanes="4" speed="33.50"/>
    <type id="d" priority="1" numLanes="5" speed="33.50"/>
    <type id="e" priority="1" numLanes="6" speed="33.50"/>

    <edge id=":10_0" function="internal">
        <lane id=":10_0_0" index="0" speed="10.77" length="10.63" shape="5386.22,59.43 5389.07,62.13 5391.43,64.06 5393.31,65.21 5394.71,65.60"/>
        <lane id=":10_0_1" index="1" speed="11.72" length="12.67" shape="5386.22,59.43 5387.71,61.20 5390.36,64.38 5393.06,67.44 5394.71,68.80"/>
        <lane id=":10_0_2" index="2" speed="13.33" length="16.50" shape="5386.22,59.43 5391.47,64.93 5394.63,68.86 5395.71,71.21 5394.71,72.00"/>
        <lane id=":10_0_3" index="3" speed="14.99" length="20.96" shape="5386.22,59.43 5392.67,66.33 5396.23,71.26 5396.91,74.21 5394.71,75.20"/>
        <lane id=":10_0_4" index="4" speed="16.52" length="25.58" shape="5386.22,59.43 5393.87,67.73 5397.83,73.66 5398.11,77.21 5394.71,78.40"/>
        <lane id=":10_0_5" index="5" speed="11.30" length="11.73" shape="5383.96,61.70 5386.10,63.40 5388.60,64.62 5391.47,65.36 5394.71,65.60"/>
        <lane id=":10_0_6" index="6" speed="11.92" length="13.11" shape="5383.96,61.70 5387.30,64.80 5390.20,67.02 5392.67,68.36 5394.71,68.80"/>
        <lane id=":10_0_7" index="7" speed="12.69" length="14.91" shape="5383.96,61.70 5385.80,63.61 5389.22,67.11 5392.71,70.49 5394.71,72.00"/>
        <lane id=":10_0_8" index="8" speed="13.83" length="17.80" shape="5383.96,61.70 5389.70,67.60 5393.40,71.82 5395.07,74.36 5394.71,75.20"/>
        <lane id=":10_0_9" index="9" speed="15.34" length="21.97" shape="5383.96,61.70 5390.90,69.00 5395.00,74.22 5396.27,77.36 5394.71,78.40"/>
    </edge>
    <edge id=":10_10" function="internal">
        <lane id=":10_10_0" index="0" speed="33.50" length="12.79" shape="5382.34,65.60 5394.71,65.60"/>
        <lane id=":10_10_1" index="1" speed="33.50" length="12.79" shape="5382.34,65.60 5386.07,66.10 5388.53,67.20 5390.98,68.30 5394.71,68.80"/>
        <lane id=":10_10_2" index="2" speed="33.50" length="12.79" shape="5382.34,68.80 5386.07,69.30 5388.53,70.40 5390.98,71.50 5394.71,72.00"/>
        <lane id=":10_10_3" index="3" speed="33.50" length="12.79" shape="5382.34,72.00 5386.07,72.50 5388.53,73.60 5390.98,74.70 5394.71,75.20"/>
        <lane id=":10_10_4" index="4" speed="33.50" length="12.79" shape="5382.34,75.20 5386.07,75.70 5388.53,76.80 5390.98,77.90 5394.71,78.40"/>
    </edge>
    <edge id=":11_0" function="internal">
        <lane id=":11_0_0" index="0" speed="10.77" length="10.63" shape="6405.29,65.60 6406.69,65.21 6408.57,64.06 6410.93,62.13 6413.78,59.43"/>
    </edge>
    <edge id=":11_1" function="internal">
        <lane id=":11_1_0" index="0" speed="33.50" length="12.36" shape="6405.29,65.60 6417.66,65.60"/>
    </edge>
    <edge id=":11_2" function="internal">
        <lane id=":11_2_0" index="0" speed="11.92" length="2.60" shape="6405.29,68.80 6407.33,68.36 6407.78,68.11"/>
    </edge>
    <edge id=":11_3" function="internal">
        <lane id=":11_3_0" index="0" speed="33.50" length="12.36" shape="6405.29,68.80 6417.66,68.80"/>
    </edge>
    <edge id=":11_4" function="internal">
        <lane id=":11_4_0" index="0" speed="12.69" length="1.46" shape="6405.29,72.00 6406.46,71.12"/>
    </edge>
    <edge id=":11_5" function="internal">
        <lane id=":11_5_0" index="0" speed="33.50" length="12.36" shape="6405.29,72.00 6417.66,72.00"/>
        <lane id=":11_5_1" index="1" speed="33.50" length="12.36" shape="6405.29,75.20 6417.66,75.20"/>
        <lane id=":11_5_2" index="2" speed="33.50" length="12.36" shape="6405.29,78.40 6417.66,78.40"/>
    </edge>
    <edge id=":11_8" function="internal">
        <lane id=":11_8_0" index="0" speed="11.92" length="10.51" shape="6407.78,68.11 6409.80,67.02 6412.70,64.80 6416.04,61.70"/>
    </edge>
    <edge id=":11_9" function="internal">
        <lane id=":11_9_0" index="0" speed="12.69" length="13.45" shape="6406.46,71.12 6407.29,70.49 6410.78,67.11 6414.20,63.61 6416.04,61.70"/>
    </edge>
    <edge id=":12_0" function="internal">
        <lane id=":12_0_0" index="0" speed="10.77" length="10.63" shape="6986.22,59.43 6989.07,62.13 6991.43,64.06 6993.31,65.21 6994.71,65.60"/>
        <lane id=":12_0_1" index="1" speed="11.72" length="12.67" shape="6986.22,59.43 6987.71,61.20 6990.36,64.38 6993.06,67.44 6994.71,68.80"/>
        <lane id=":12_0_2" index="2" speed="13.33" length="16.50" shape="6986.22,59.43 6991.47,64.93 6994.63,68.86 6995.71,71.21 6994.71,72.00"/>
        <lane id=":12_0_3" index="3" speed="14.99" length="20.96" shape="6986.22,59.43 6992.67,66.33 6996.23,71.26 6996.91,74.21 6994.71,75.20"/>
        <lane id=":12_0_4" index="4" speed="16.52" length="25.58" shape="6986.22,59.43 6993.87,67.73 6997.83,73.66 6998.11,77.21 6994.71,78.40"/>
        <lane id=":12_0_5" index="5" speed="11.30" length="11.73" shape="6983.96,61.70 6986.10,63.40 6988.60,64.62 6991.47,65.36 6994.71,65.60"/>
        <lane id=":12_0_6" index="6" speed="11.92" length="13.11" shape="6983.96,61.70 6987.30,64.80 6990.20,67.02 6992.67,68.36 6994.71,68.80"/>
        <lane id=":12_0_7" index="7" speed="12.69" length="14.91" shape="6983.96,61.70 6985.80,63.61 6989.22,67.11 6992.71,70.49 6994.71,72.00"/>
        <lane id=":12_0_8" index="8" speed="13.83" length="17.80" shape="6983.96,61.70 6989.70,67.60 6993.40,71.82 6995.07,74.36 6994.71,75.20"/>
        <lane id=":12_0_9" index="9" speed="15.34" length="21.97" shape="6983.96,61.70 6990.90,69.00 6995.00,74.22 6996.27,77.36 6994.71,78.40"/>
    </edge>
    <edge id=":12_10" function="internal">
        <lane id=":12_10_0" index="0" speed="33.50" length="12.36" shape="6982.34,65.60 6994.71,65.60"/>
        <lane id=":12_10_1" index="1" speed="33.50" length="12.36" shape="6982.34,68.80 6994.71,68.80"/>
        <lane id=":12_10_2" index="2" speed="33.50" length="12.36" shape="6982.34,72.00 6994.71,72.00"/>
        <lane id=":12_10_3" index="3" speed="33.50" length="12.36" shape="6982.34,75.20 6994.71,75.20"/>
        <lane id=":12_10_4" index="4" speed="33.50" length="12.36" shape="6982.34,78.40 6994.71,78.40"/>
    </edge>
    <edge id=":13_0" function="internal">
        <lane id=":13_0_0" index="0" speed="33.50" length="8.13" shape="7396.00,65.60 7398.46,65.10 7400.00,64.00 7401.54,62.90 7404.00,62.40"/>
        <lane id=":13_0_1" index="1" speed="33.50" length="8.13" shape="7396.00,65.60 7404.00,65.60"/>
        <lane id=":13_0_2" index="2" speed="33.50" length="8.13" shape="7396.00,68.80 7404.00,68.80"/>
        <lane id=":13_0_3" index="3" speed="33.50" length="8.13" shape="7396.00,72.00 7404.00,72.00"/>
        <lane id=":13_0_4" index="4" speed="33.50" length="8.13" shape="7396.00,75.20 7404.00,75.20"/>
        <lane id=":13_0_5" index="5" speed="33.50" length="8.13" shape="7396.00,78.40 7404.00,78.40"/>
    </edge>
    <edge id=":14_0" function="internal">
        <lane id=":14_0_0" index="0" speed="33.50" length="8.13" shape="7996.00,62.40 7998.46,62.90 8000.00,64.00 8001.54,65.10 8004.00,65.60"/>
        <lane id=":14_0_1" index="1" speed="33.50" length="8.13" shape="7996.00,65.60 8004.00,65.60"/>
        <lane id=":14_0_2" index="2" speed="33.50" length="8.13" shape="7996.00,68.80 8004.00,68.80"/>
        <lane id=":14_0_3" index="3" speed="33.50" length="8.13" shape="7996.00,72.00 8004.00,72.00"/>
        <lane id=":14_0_4" index="4" speed="33.50" length="8.13" shape="7996.00,75.20 8004.00,75.20"/>
        <lane id=":14_0_5" index="5" speed="33.50" length="8.13" shape="7996.00,78.40 8004.00,78.40"/>
    </edge>
    <edge id=":15_0" function="internal">
        <lane id=":15_0_0" index="0" speed="10.97" length="11.03" shape="8686.22,59.43 8688.38,61.96 8689.89,63.91 8691.69,65.16 8694.71,65.60"/>
        <lane id=":15_0_1" index="1" speed="12.08" length="13.47" shape="8686.22,59.43 8688.54,62.78 8689.77,65.79 8691.34,67.96 8694.71,68.80"/>
        <lane id=":15_0_2" index="2" speed="13.28" length="16.37" shape="8686.22,59.43 8688.74,63.66 8689.63,67.73 8690.94,70.79 8694.71,72.00"/>
        <lane id=":15_0_3" index="3" speed="14.48" length="19.53" shape="8686.22,59.43 8688.96,64.57 8689.48,69.69 8690.50,73.63 8694.71,75.20"/>
        <lane id=":15_0_4" index="4" speed="15.62" length="22.82" shape="8686.22,59.43 8689.07,65.38 8689.22,71.57 8689.99,76.43 8694.71,78.40"/>
        <lane id=":15_0_5" index="5" speed="11.40" length="11.95" shape="8683.96,61.70 8686.54,64.01 8688.71,65.16 8691.18,65.56 8694.71,65.60"/>
        <lane id=":15_0_6" index="6" speed="12.10" length="13.52" shape="8683.96,61.70 8686.65,64.73 8688.63,66.96 8690.95,68.33 8694.71,68.80"/>
        <lane id=":15_0_7" index="7" speed="13.05" length="15.79" shape="8683.96,61.70 8686.81,65.53 8688.52,68.82 8690.63,71.13 8694.71,72.00"/>
        <lane id=":15_0_8" index="8" speed="14.10" length="18.50" shape="8683.96,61.70 8687.00,66.38 8688.39,70.74 8690.25,73.95 8694.71,75.20"/>
        <lane id=":15_0_9" index="9" speed="15.17" length="21.49" shape="8683.96,61.70 8687.21,67.27 8688.24,72.68 8689.83,76.78 8694.71,78.40"/>
    </edge>
    <edge id=":15_10" function="internal">
        <lane id=":15_10_0" index="0" speed="33.50" length="12.36" shape="8682.34,65.60 8694.71,65.60"/>
        <lane id=":15_10_1" index="1" speed="33.50" length="12.36" shape="8682.34,68.80 8694.71,68.80"/>
        <lane id=":15_10_2" index="2" speed="33.50" length="12.36" shape="8682.34,72.00 8694.71,72.00"/>
        <lane id=":15_10_3" index="3" speed="33.50" length="12.36" shape="8682.34,75.20 8694.71,75.20"/>
        <lane id=":15_10_4" index="4" speed="33.50" length="12.36" shape="8682.34,78.40 8694.71,78.40"/>
    </edge>
    <edge id=":16_0" function="internal">
        <lane id=":16_0_0" index="0" speed="33.50" length="2.22" shape="9600.00,65.60 9600.00,65.60"/>
        <lane id=":16_0_1" index="1" speed="33.50" length="2.22" shape="9600.00,65.60 9600.00,68.80"/>
        <lane id=":16_0_2" index="2" speed="33.50" length="2.22" shape="9600.00,68.80 9600.00,68.80"/>
        <lane id=":16_0_3" index="3" speed="33.50" length="2.22" shape="9600.00,68.80 9600.00,72.00"/>
        <lane id=":16_0_4" index="4" speed="33.50" length="2.22" shape="9600.00,68.80 9600.00,75.20"/>
        <lane id=":16_0_5" index="5" speed="33.50" length="2.22" shape="9600.00,72.00 9600.00,68.80"/>
        <lane id=":16_0_6" index="6" speed="33.50" length="2.22" shape="9600.00,72.00 9600.00,72.00"/>
        <lane id=":16_0_7" index="7" speed="33.50" length="2.22" shape="9600.00,72.00 9600.00,75.20"/>
        <lane id=":16_0_8" index="8" speed="33.50" length="2.22" shape="9600.00,75.20 9600.00,72.00"/>
        <lane id=":16_0_9" index="9" speed="33.50" length="2.22" shape="9600.00,75.20 9600.00,75.20"/>
        <lane id=":16_0_10" index="10" speed="33.50" length="2.22" shape="9600.00,75.20 9600.00,78.40"/>
        <lane id=":16_0_11" index="11" speed="33.50" length="2.22" shape="9600.00,78.40 9600.00,75.20"/>
        <lane id=":16_0_12" index="12" speed="33.50" length="2.22" shape="9600.00,78.40 9600.00,78.40"/>
    </edge>
    <edge id=":17_0" function="internal">
        <lane id=":17_0_0" index="0" speed="10.97" length="11.03" shape="10105.29,65.60 10108.31,65.16 10110.11,63.91 10111.62,61.96 10113.78,59.43"/>
    </edge>
    <edge id=":17_1" function="internal">
        <lane id=":17_1_0" index="0" speed="33.50" length="12.36" shape="10105.29,65.60 10117.66,65.60"/>
    </edge>
    <edge id=":17_2" function="internal">
        <lane id=":17_2_0" index="0" speed="12.10" length="4.11" shape="10105.29,68.80 10109.05,68.33 10109.33,68.16"/>
    </edge>
    <edge id=":17_3" function="internal">
        <lane id=":17_3_0" index="0" speed="33.50" length="12.36" shape="10105.29,68.80 10117.66,68.80"/>
    </edge>
    <edge id=":17_4" function="internal">
        <lane id=":17_4_0" index="0" speed="13.05" length="3.45" shape="10105.29,72.00 10108.67,71.28"/>
    </edge>
    <edge id=":17_5" function="internal">
        <lane id=":17_5_0" index="0" speed="33.50" length="12.36" shape="10105.29,72.00 10117.66,72.00"/>
        <lane id=":17_5_1" index="1" speed="33.50" length="12.36" shape="10105.29,75.20 10117.66,75.20"/>
    </edge>
    <edge id=":17_7" function="internal">
        <lane id=":17_7_0" index="0" speed="12.10" length="9.41" shape="10109.33,68.16 10111.37,66.96 10113.35,64.73 10116.04,61.70"/>
    </edge>
    <edge id=":17_8" function="internal">
        <lane id=":17_8_0" index="0" speed="13.05" length="12.33" shape="10108.67,71.28 10109.37,71.13 10111.48,68.82 10113.19,65.53 10116.04,61.70"/>
    </edge>
    <edge id=":18_0" function="internal">
        <lane id=":18_0_0" index="0" speed="33.50" length="8.36" shape="10396.00,65.60 10398.46,65.10 10400.00,64.00 10401.54,62.90 10404.00,62.40"/>
        <lane id=":18_0_1" index="1" speed="33.50" length="8.36" shape="10396.00,65.60 10404.00,65.60"/>
        <lane id=":18_0_2" index="2" speed="33.50" length="8.36" shape="10396.00,68.80 10404.00,68.80"/>
        <lane id=":18_0_3" index="3" speed="33.50" length="8.36" shape="10396.00,68.80 10398.46,69.30 10400.00,70.40 10401.54,71.50 10404.00,72.00"/>
        <lane id=":18_0_4" index="4" speed="33.50" length="8.36" shape="10396.00,72.00 10404.00,72.00"/>
        <lane id=":18_0_5" index="5" speed="33.50" length="8.36" shape="10396.00,72.00 10398.46,72.50 10400.00,73.60 10401.54,74.70 10404.00,75.20"/>
        <lane id=":18_0_6" index="6" speed="33.50" length="8.36" shape="10396.00,75.20 10404.00,75.20"/>
        <lane id=":18_0_7" index="7" speed="33.50" length="8.36" shape="10396.00,75.20 10398.46,75.70 10400.00,76.80 10401.54,77.90 10404.00,78.40"/>
        <lane id=":18_0_8" index="8" speed="33.50" length="8.36" shape="10396.00,78.40 10404.00,78.40"/>
    </edge>
    <edge id=":19_0" function="internal">
        <lane id=":19_0_0" index="0" speed="33.50" length="8.13" shape="11096.00,62.40 11098.46,62.90 11100.00,64.00 11101.54,65.10 11104.00,65.60"/>
        <lane id=":19_0_1" index="1" speed="33.50" length="8.13" shape="11096.00,65.60 11104.00,65.60"/>
        <lane id=":19_0_2" index="2" speed="33.50" length="8.13" shape="11096.00,68.80 11104.00,68.80"/>
        <lane id=":19_0_3" index="3" speed="33.50" length="8.13" shape="11096.00,72.00 11104.00,72.00"/>
        <lane id=":19_0_4" index="4" speed="33.50" length="8.13" shape="11096.00,75.20 11104.00,75.20"/>
        <lane id=":19_0_5" index="5" speed="33.50" length="8.13" shape="11096.00,78.40 11104.00,78.40"/>
    </edge>
    <edge id=":2_0" function="internal">
        <lane id=":2_0_0" index="0" speed="10.77" length="10.63" shape="1189.42,62.63 1192.27,65.33 1194.63,67.26 1196.51,68.41 1197.91,68.80"/>
        <lane id=":2_0_1" index="1" speed="11.72" length="12.67" shape="1189.42,62.63 1190.91,64.40 1193.56,67.58 1196.26,70.64 1197.91,72.00"/>
        <lane id=":2_0_2" index="2" speed="13.33" length="16.50" shape="1189.42,62.63 1194.67,68.13 1197.83,72.06 1198.91,74.41 1197.91,75.20"/>
        <lane id=":2_0_3" index="3" speed="14.99" length="20.96" shape="1189.42,62.63 1195.87,69.53 1199.43,74.46 1200.11,77.41 1197.91,78.40"/>
        <lane id=":2_0_4" index="4" speed="11.30" length="11.73" shape="1187.16,64.90 1189.30,66.60 1191.80,67.82 1194.67,68.56 1197.91,68.80"/>
        <lane id=":2_0_5" index="5" speed="11.92" length="13.11" shape="1187.16,64.90 1190.50,68.00 1193.40,70.22 1195.87,71.56 1197.91,72.00"/>
        <lane id=":2_0_6" index="6" speed="12.69" length="14.91" shape="1187.16,64.90 1189.00,66.81 1192.42,70.31 1195.91,73.69 1197.91,75.20"/>
        <lane id=":2_0_7" index="7" speed="13.83" length="17.80" shape="1187.16,64.90 1192.90,70.80 1196.60,75.02 1198.27,77.56 1197.91,78.40"/>
    </edge>
    <edge id=":2_8" function="internal">
        <lane id=":2_8_0" index="0" speed="33.50" length="12.36" shape="1185.54,68.80 1197.91,68.80"/>
        <lane id=":2_8_1" index="1" speed="33.50" length="12.36" shape="1185.54,72.00 1197.91,72.00"/>
        <lane id=":2_8_2" index="2" speed="33.50" length="12.36" shape="1185.54,75.20 1197.91,75.20"/>
        <lane id=":2_8_3" index="3" speed="33.50" length="12.36" shape="1185.54,78.40 1197.91,78.40"/>
    </edge>
    <edge id=":20_0" function="internal">
        <lane id=":20_0_0" index="0" speed="10.97" length="11.03" shape="11505.29,65.60 11508.31,65.16 11510.11,63.91 11511.62,61.96 11513.78,59.43"/>
    </edge>
    <edge id=":20_1" function="internal">
        <lane id=":20_1_0" index="0" speed="33.50" length="12.36" shape="11505.29,65.60 11517.66,65.60"/>
    </edge>
    <edge id=":20_2" function="internal">
        <lane id=":20_2_0" index="0" speed="12.10" length="4.11" shape="11505.29,68.80 11509.05,68.33 11509.33,68.16"/>
    </edge>
    <edge id=":20_3" function="internal">
        <lane id=":20_3_0" index="0" speed="33.50" length="12.36" shape="11505.29,68.80 11517.66,68.80"/>
    </edge>
    <edge id=":20_4" function="internal">
        <lane id=":20_4_0" index="0" speed="13.05" length="3.45" shape="11505.29,72.00 11508.67,71.28"/>
    </edge>
    <edge id=":20_5" function="internal">
        <lane id=":20_5_0" index="0" speed="33.50" length="12.36" shape="11505.29,72.00 11517.66,72.00"/>
        <lane id=":20_5_1" index="1" speed="33.50" length="12.36" shape="11505.29,75.20 11517.66,75.20"/>
        <lane id=":20_5_2" index="2" speed="33.50" length="12.36" shape="11505.29,78.40 11517.66,78.40"/>
    </edge>
    <edge id=":20_8" function="internal">
        <lane id=":20_8_0" index="0" speed="12.10" length="9.41" shape="11509.33,68.16 11511.37,66.96 11513.35,64.73 11516.04,61.70"/>
    </edge>
    <edge id=":20_9" function="internal">
        <lane id=":20_9_0" index="0" speed="13.05" length="12.33" shape="11508.67,71.28 11509.37,71.13 11511.48,68.82 11513.19,65.53 11516.04,61.70"/>
    </edge>
    <edge id=":21_0" function="internal">
        <lane id=":21_0_0" index="0" speed="33.50" length="0.10" shape="12100.00,65.60 12100.00,65.60"/>
        <lane id=":21_0_1" index="1" speed="33.50" length="0.10" shape="12100.00,68.80 12100.00,68.80"/>
        <lane id=":21_0_2" index="2" speed="33.50" length="0.10" shape="12100.00,72.00 12100.00,72.00"/>
        <lane id=":21_0_3" index="3" speed="33.50" length="0.10" shape="12100.00,75.20 12100.00,75.20"/>
        <lane id=":21_0_4" index="4" speed="33.50" length="0.10" shape="12100.00,78.40 12100.00,78.40"/>
    </edge>
    <edge id=":3_0" function="internal">
        <lane id=":3_0_0" index="0" speed="33.50" length="8.16" shape="1796.00,68.80 1798.46,68.30 1800.00,67.20 1801.54,66.10 1804.00,65.60"/>
        <lane id=":3_0_1" index="1" speed="33.50" length="8.16" shape="1796.00,68.80 1804.00,68.80"/>
        <lane id=":3_0_2" index="2" speed="33.50" length="8.16" shape="1796.00,72.00 1804.00,72.00"/>
        <lane id=":3_0_3" index="3" speed="33.50" length="8.16" shape="1796.00,75.20 1804.00,75.20"/>
        <lane id=":3_0_4" index="4" speed="33.50" length="8.16" shape="1796.00,78.40 1804.00,78.40"/>
    </edge>
    <edge id=":4_0" function="internal">
        <lane id=":4_0_0" index="0" speed="33.50" length="8.13" shape="2296.00,65.60 2298.46,65.10 2300.00,64.00 2301.54,62.90 2304.00,62.40"/>
        <lane id=":4_0_1" index="1" speed="33.50" length="8.13" shape="2296.00,65.60 2304.00,65.60"/>
        <lane id=":4_0_2" index="2" speed="33.50" length="8.13" shape="2296.00,68.80 2304.00,68.80"/>
        <lane id=":4_0_3" index="3" speed="33.50" length="8.13" shape="2296.00,72.00 2304.00,72.00"/>
        <lane id=":4_0_4" index="4" speed="33.50" length="8.13" shape="2296.00,75.20 2304.00,75.20"/>
        <lane id=":4_0_5" index="5" speed="33.50" length="8.13" shape="2296.00,78.40 2304.00,78.40"/>
    </edge>
    <edge id=":5_0" function="internal">
        <lane id=":5_0_0" index="0" speed="33.50" length="8.13" shape="2896.00,62.40 2898.46,62.90 2900.00,64.00 2901.54,65.10 2904.00,65.60"/>
        <lane id=":5_0_1" index="1" speed="33.50" length="8.13" shape="2896.00,65.60 2904.00,65.60"/>
        <lane id=":5_0_2" index="2" speed="33.50" length="8.13" shape="2896.00,68.80 2904.00,68.80"/>
        <lane id=":5_0_3" index="3" speed="33.50" length="8.13" shape="2896.00,72.00 2904.00,72.00"/>
        <lane id=":5_0_4" index="4" speed="33.50" length="8.13" shape="2896.00,75.20 2904.00,75.20"/>
        <lane id=":5_0_5" index="5" speed="33.50" length="8.13" shape="2896.00,78.40 2904.00,78.40"/>
    </edge>
    <edge id=":6_0" function="internal">
        <lane id=":6_0_0" index="0" speed="10.97" length="11.03" shape="3005.29,65.60 3008.31,65.16 3010.11,63.91 3011.62,61.96 3013.78,59.43"/>
    </edge>
    <edge id=":6_1" function="internal">
        <lane id=":6_1_0" index="0" speed="33.50" length="12.36" shape="3005.29,65.60 3017.66,65.60"/>
    </edge>
    <edge id=":6_2" function="internal">
        <lane id=":6_2_0" index="0" speed="11.92" length="2.60" shape="3005.29,68.80 3007.33,68.36 3007.78,68.11"/>
    </edge>
    <edge id=":6_3" function="internal">
        <lane id=":6_3_0" index="0" speed="33.50" length="12.36" shape="3005.29,68.80 3017.66,68.80"/>
    </edge>
    <edge id=":6_4" function="internal">
        <lane id=":6_4_0" index="0" speed="12.69" length="1.46" shape="3005.29,72.00 3006.46,71.12"/>
    </edge>
    <edge id=":6_5" function="internal">
        <lane id=":6_5_0" index="0" speed="33.50" length="12.36" shape="3005.29,72.00 3017.66,72.00"/>
        <lane id=":6_5_1" index="1" speed="33.50" length="12.36" shape="3005.29,75.20 3017.66,75.20"/>
        <lane id=":6_5_2" index="2" speed="33.50" length="12.36" shape="3005.29,78.40 3017.66,78.40"/>
    </edge>
    <edge id=":6_8" function="internal">
        <lane id=":6_8_0" index="0" speed="11.92" length="10.51" shape="3007.78,68.11 3009.80,67.02 3012.70,64.80 3016.04,61.70"/>
    </edge>
    <edge id=":6_9" function="internal">
        <lane id=":6_9_0" index="0" speed="12.69" length="13.45" shape="3006.46,71.12 3007.29,70.49 3010.78,67.11 3014.20,63.61 3016.04,61.70"/>
    </edge>
    <edge id=":7_0" function="internal">
        <lane id=":7_0_0" index="0" speed="33.50" length="8.16" shape="3496.00,65.60 3498.46,66.10 3500.00,67.20 3501.54,68.30 3504.00,68.80"/>
        <lane id=":7_0_1" index="1" speed="33.50" length="8.16" shape="3496.00,68.80 3504.00,68.80"/>
        <lane id=":7_0_2" index="2" speed="33.50" length="8.16" shape="3496.00,72.00 3504.00,72.00"/>
        <lane id=":7_0_3" index="3" speed="33.50" length="8.16" shape="3496.00,75.20 3504.00,75.20"/>
        <lane id=":7_0_4" index="4" speed="33.50" length="8.16" shape="3496.00,78.40 3504.00,78.40"/>
    </edge>
    <edge id=":8_0" function="internal">
        <lane id=":8_0_0" index="0" speed="10.77" length="10.63" shape="4702.09,68.80 4703.49,68.41 4705.37,67.26 4707.73,65.33 4710.58,62.63"/>
    </edge>
    <edge id=":8_1" function="internal">
        <lane id=":8_1_0" index="0" speed="33.50" length="12.36" shape="4702.09,68.80 4714.46,68.80"/>
    </edge>
    <edge id=":8_2" function="internal">
        <lane id=":8_2_0" index="0" speed="11.92" length="2.60" shape="4702.09,72.00 4704.13,71.56 4704.58,71.31"/>
    </edge>
    <edge id=":8_3" function="internal">
        <lane id=":8_3_0" index="0" speed="33.50" length="12.36" shape="4702.09,72.00 4714.46,72.00"/>
    </edge>
    <edge id=":8_4" function="internal">
        <lane id=":8_4_0" index="0" speed="12.69" length="1.46" shape="4702.09,75.20 4703.26,74.32"/>
    </edge>
    <edge id=":8_5" function="internal">
        <lane id=":8_5_0" index="0" speed="33.50" length="12.36" shape="4702.09,75.20 4714.46,75.20"/>
        <lane id=":8_5_1" index="1" speed="33.50" length="12.36" shape="4702.09,78.40 4714.46,78.40"/>
    </edge>
    <edge id=":8_7" function="internal">
        <lane id=":8_7_0" index="0" speed="11.92" length="10.51" shape="4704.58,71.31 4706.60,70.22 4709.50,68.00 4712.84,64.90"/>
    </edge>
    <edge id=":8_8" function="internal">
        <lane id=":8_8_0" index="0" speed="12.69" length="13.45" shape="4703.26,74.32 4704.09,73.69 4707.58,70.31 4711.00,66.81 4712.84,64.90"/>
    </edge>
    <edge id=":9_0" function="internal">
        <lane id=":9_0_0" index="0" speed="33.50" length="8.51" shape="5196.00,68.80 5198.46,68.30 5200.00,67.20 5201.54,66.10 5204.00,65.60"/>
        <lane id=":9_0_1" index="1" speed="33.50" length="8.51" shape="5196.00,68.80 5204.00,68.80"/>
        <lane id=":9_0_2" index="2" speed="33.50" length="8.51" shape="5196.00,68.80 5198.46,69.30 5200.00,70.40 5201.54,71.50 5204.00,72.00"/>
        <lane id=":9_0_3" index="3" speed="33.50" length="8.51" shape="5196.00,72.00 5198.46,71.50 5200.00,70.40 5201.54,69.30 5204.00,68.80"/>
        <lane id=":9_0_4" index="4" speed="33.50" length="8.51" shape="5196.00,72.00 5204.00,72.00"/>
        <lane id=":9_0_5" index="5" speed="33.50" length="8.51" shape="5196.00,72.00 5198.46,72.50 5200.00,73.60 5201.54,74.70 5204.00,75.20"/>
        <lane id=":9_0_6" index="6" speed="33.50" length="8.51" shape="5196.00,75.20 5198.46,74.70 5200.00,73.60 5201.54,72.50 5204.00,72.00"/>
        <lane id=":9_0_7" index="7" speed="33.50" length="8.51" shape="5196.00,75.20 5204.00,75.20"/>
        <lane id=":9_0_8" index="8" speed="33.50" length="8.51" shape="5196.00,75.20 5198.46,75.70 5200.00,76.80 5201.54,77.90 5204.00,78.40"/>
        <lane id=":9_0_9" index="9" speed="33.50" length="8.51" shape="5196.00,78.40 5198.46,77.90 5200.00,76.80 5201.54,75.70 5204.00,75.20"/>
        <lane id=":9_0_10" index="10" speed="33.50" length="8.51" shape="5196.00,78.40 5204.00,78.40"/>
    </edge>

    <edge id="E1" from="1" to="2" priority="1" type="c">
        <lane id="E1_0" index="0" speed="33.50" length="1185.54" shape="0.00,68.80 1185.54,68.80"/>
        <lane id="E1_1" index="1" speed="33.50" length="1185.54" shape="0.00,72.00 1185.54,72.00"/>
        <lane id="E1_2" index="2" speed="33.50" length="1185.54" shape="0.00,75.20 1185.54,75.20"/>
        <lane id="E1_3" index="3" speed="33.50" length="1185.54" shape="0.00,78.40 1185.54,78.40"/>
    </edge>
    <edge id="E10" from="10" to="11" priority="1" type="d">
        <lane id="E10_0" index="0" speed="33.50" length="1010.58" shape="5394.71,65.60 6405.29,65.60"/>
        <lane id="E10_1" index="1" speed="33.50" length="1010.58" shape="5394.71,68.80 6405.29,68.80"/>
        <lane id="E10_2" index="2" speed="33.50" length="1010.58" shape="5394.71,72.00 6405.29,72.00"/>
        <lane id="E10_3" index="3" speed="33.50" length="1010.58" shape="5394.71,75.20 6405.29,75.20"/>
        <lane id="E10_4" index="4" speed="33.50" length="1010.58" shape="5394.71,78.40 6405.29,78.40"/>
    </edge>
    <edge id="E11" from="11" to="12" priority="1" type="d">
        <lane id="E11_0" index="0" speed="33.50" length="564.69" shape="6417.66,65.60 6982.34,65.60"/>
        <lane id="E11_1" index="1" speed="33.50" length="564.69" shape="6417.66,68.80 6982.34,68.80"/>
        <lane id="E11_2" index="2" speed="33.50" length="564.69" shape="6417.66,72.00 6982.34,72.00"/>
        <lane id="E11_3" index="3" speed="33.50" length="564.69" shape="6417.66,75.20 6982.34,75.20"/>
        <lane id="E11_4" index="4" speed="33.50" length="564.69" shape="6417.66,78.40 6982.34,78.40"/>
    </edge>
    <edge id="E12" from="12" to="13" priority="1" type="d">
        <lane id="E12_0" index="0" speed="33.50" length="401.29" shape="6994.71,65.60 7396.00,65.60"/>
        <lane id="E12_1" index="1" speed="33.50" length="401.29" shape="6994.71,68.80 7396.00,68.80"/>
        <lane id="E12_2" index="2" speed="33.50" length="401.29" shape="6994.71,72.00 7396.00,72.00"/>
        <lane id="E12_3" index="3" speed="33.50" length="401.29" shape="6994.71,75.20 7396.00,75.20"/>
        <lane id="E12_4" index="4" speed="33.50" length="401.29" shape="6994.71,78.40 7396.00,78.40"/>
    </edge>
    <edge id="E13" from="13" to="14" priority="1" type="e">
        <lane id="E13_0" index="0" speed="33.50" length="592.00" shape="7404.00,62.40 7996.00,62.40"/>
        <lane id="E13_1" index="1" speed="33.50" length="592.00" shape="7404.00,65.60 7996.00,65.60"/>
        <lane id="E13_2" index="2" speed="33.50" length="592.00" shape="7404.00,68.80 7996.00,68.80"/>
        <lane id="E13_3" index="3" speed="33.50" length="592.00" shape="7404.00,72.00 7996.00,72.00"/>
        <lane id="E13_4" index="4" speed="33.50" length="592.00" shape="7404.00,75.20 7996.00,75.20"/>
        <lane id="E13_5" index="5" speed="33.50" length="592.00" shape="7404.00,78.40 7996.00,78.40"/>
    </edge>
    <edge id="E14" from="14" to="15" priority="1" type="d">
        <lane id="E14_0" index="0" speed="33.50" length="678.34" shape="8004.00,65.60 8682.34,65.60"/>
        <lane id="E14_1" index="1" speed="33.50" length="678.34" shape="8004.00,68.80 8682.34,68.80"/>
        <lane id="E14_2" index="2" speed="33.50" length="678.34" shape="8004.00,72.00 8682.34,72.00"/>
        <lane id="E14_3" index="3" speed="33.50" length="678.34" shape="8004.00,75.20 8682.34,75.20"/>