<?xml version="1.0" encoding="UTF-8"?>
<nodes>

  
  <node id="1" x="1000.0" y="0.0" />
  
  <node id="2" x="2200.0" y="0.0" />
  <node id="2S" x="2120.0" y="-80.0" />
  
  <node id="3" x="2800.0" y="0.0" />
  
  <node id="4" x="3300.0" y="0.0" />
  
  <node id="5" x="3900.0" y="0.0" />
  
  <node id="6" x="4000.0" y="0.0" />
  <node id="6S" x="4080.0" y="-80.0" />
  
  <node id="7" x="4500.0" y="0.0" />
  
  <node id="8" x="5700.0" y="0.0" />
  <node id="8S" x="5780.0" y="-80.0" />
  
  <node id="9" x="6200.0" y="0.0" />
  
  <node id="10" x="6400.0" y="0.0" />
  <node id="10S" x="6320.0" y="-80.0" />
  
  <node id="11" x="7400.0" y="0.0" />
  <node id="11S" x="7480.0" y="-80.0" />
  
  <node id="12" x="8000.0" y="0.0" />
  <node id="12S" x="7920.0" y="-80.0" />
  
  <node id="13" x="8400.0" y="0.0" />  
  
  <node id="14" x="9000.0" y="0.0" /> 
  
  <node id="15" x="9700.0" y="0.0" />  
  <node id="15S" x="9620.0" y="-80.0" />
  
  <node id="16" x="10600.0" y="0.0" />
  
  <node id="17" x="11100.0" y="0.0" />
  <node id="17S" x="11180.0" y="-80.0" />
  
  <node id="18" x="11400.0" y="0.0" />
  
  <node id="19" x="12100.0" y="0.0" />  
  
  <node id="20" x="12500.0" y="0.0" />  
  <node id="20S" x="12580.0" y="-80.0" />  

  <node id="21" x="13100.0" y="0.0" />  
  
  <node id="22" x="13150.0" y="0.0" />  
  
</nodes>